Circuit: * C:\Users\asiclawl\Desktop\SDIM\ltspice.asc

Limiting rise time of source v1 to 0.15
Limiting fall time of source v1 to 0.15
WARNING: Less than two connections to node NC_01.  This node is used by S:U1:1.
Direct Newton iteration for .op point succeeded.

Date: Sun May 27 19:42:46 2018
Total elapsed time: 0.150 seconds.

tnom = 27
temp = 27
method = modified trap
totiter = 8558
traniter = 8547
tranpoints = 2728
accept = 2313
rejected = 415
matrix size = 22
fillins = 0
solver = Normal
Matrix Compiler1: 864 bytes object code size  0.5/0.3/[0.1]
Matrix Compiler2: off  [0.2]/0.4/1.0

